MODEL 1
REMARK VINA RESULT:    -4.932      0.000      0.000
REMARK INTER + INTRA:          -4.932
REMARK INTER:                  -4.932
REMARK INTRA:                   0.000
REMARK UNBOUND:                 0.000
REMARK SMILES [H]/N=C(/N)N/C(=N/[H])N(C)C
REMARK SMILES IDX 10 1 9 2 11 3 6 4 7 5 5 6 3 7 4 8 2 9 8 10 1 14
REMARK H PARENT 5 11 4 12 4 13
REMARK Flexibility Score: inf
ROOT
ATOM      1  C   UNL A   1     -50.599  -2.743   9.694  1.00  0.00     0.146 C 
ATOM      2  N   UNL A   1     -49.466  -3.176   8.887  1.00  0.00    -0.349 N 
ATOM      3  C   UNL A   1     -48.709  -4.344   9.317  1.00  0.00     0.146 C 
ATOM      4  C   UNL A   1     -49.098  -2.462   7.681  1.00  0.00     0.197 C 
ATOM      5  N   UNL A   1     -49.772  -1.430   7.311  1.00  0.00    -0.269 NA
ATOM      6  N   UNL A   1     -47.975  -2.902   6.893  1.00  0.00    -0.297 N 
ATOM      7  C   UNL A   1     -47.461  -2.329   5.673  1.00  0.00     0.192 C 
ATOM      8  N   UNL A   1     -48.026  -1.188   5.033  1.00  0.00    -0.370 N 
ATOM      9  N   UNL A   1     -46.434  -2.872   5.118  1.00  0.00    -0.269 NA
ATOM     10  H   UNL A   1     -50.584  -1.053   7.817  1.00  0.00     0.191 HD
ATOM     11  H   UNL A   1     -47.462  -3.728   7.228  1.00  0.00     0.173 HD
ATOM     12  H   UNL A   1     -48.842  -0.673   5.371  1.00  0.00     0.159 HD
ATOM     13  H   UNL A   1     -47.598  -0.840   4.163  1.00  0.00     0.159 HD
ATOM     14  H   UNL A   1     -45.968  -3.700   5.518  1.00  0.00     0.191 HD
ENDROOT
TORSDOF 0
ENDMDL
MODEL 2
REMARK VINA RESULT:    -4.890     69.572     70.759
REMARK INTER + INTRA:          -4.890
REMARK INTER:                  -4.890
REMARK INTRA:                   0.000
REMARK UNBOUND:                 0.000
REMARK SMILES [H]/N=C(/N)N/C(=N/[H])N(C)C
REMARK SMILES IDX 10 1 9 2 11 3 6 4 7 5 5 6 3 7 4 8 2 9 8 10 1 14
REMARK H PARENT 5 11 4 12 4 13
REMARK Flexibility Score: inf
ROOT
ATOM      1  C   UNL A   1      -1.507 -41.754  37.588  1.00  0.00     0.146 C 
ATOM      2  N   UNL A   1      -1.236 -43.062  38.168  1.00  0.00    -0.349 N 
ATOM      3  C   UNL A   1      -0.661 -44.098  37.319  1.00  0.00     0.146 C 
ATOM      4  C   UNL A   1      -1.529 -43.331  39.562  1.00  0.00     0.197 C 
ATOM      5  N   UNL A   1      -2.038 -42.411  40.303  1.00  0.00    -0.269 NA
ATOM      6  N   UNL A   1      -1.256 -44.630  40.122  1.00  0.00    -0.297 N 
ATOM      7  C   UNL A   1      -1.474 -45.084  41.474  1.00  0.00     0.192 C 
ATOM      8  N   UNL A   1      -2.015 -44.265  42.507  1.00  0.00    -0.370 N 
ATOM      9  N   UNL A   1      -1.165 -46.295  41.778  1.00  0.00    -0.269 NA
ATOM     10  H   UNL A   1      -2.263 -41.461  39.980  1.00  0.00     0.191 HD
ATOM     11  H   UNL A   1      -0.853 -45.337  39.493  1.00  0.00     0.173 HD
ATOM     12  H   UNL A   1      -2.294 -43.288  42.393  1.00  0.00     0.159 HD
ATOM     13  H   UNL A   1      -2.141 -44.665  43.448  1.00  0.00     0.159 HD
ATOM     14  H   UNL A   1      -0.768 -46.950  41.089  1.00  0.00     0.191 HD
ENDROOT
TORSDOF 0
ENDMDL
MODEL 3
REMARK VINA RESULT:    -4.876     80.121     80.958
REMARK INTER + INTRA:          -4.876
REMARK INTER:                  -4.876
REMARK INTRA:                   0.000
REMARK UNBOUND:                 0.000
REMARK SMILES [H]/N=C(/N)N/C(=N/[H])N(C)C
REMARK SMILES IDX 10 1 9 2 11 3 6 4 7 5 5 6 3 7 4 8 2 9 8 10 1 14
REMARK H PARENT 5 11 4 12 4 13
REMARK Flexibility Score: inf
ROOT
ATOM      1  C   UNL A   1      24.070   2.787  41.211  1.00  0.00     0.146 C 
ATOM      2  N   UNL A   1      24.447   2.983  39.817  1.00  0.00    -0.349 N 
ATOM      3  C   UNL A   1      23.832   2.138  38.802  1.00  0.00     0.146 C 
ATOM      4  C   UNL A   1      25.412   3.998  39.445  1.00  0.00     0.197 C 
ATOM      5  N   UNL A   1      25.951   4.738  40.349  1.00  0.00    -0.269 NA
ATOM      6  N   UNL A   1      25.775   4.180  38.062  1.00  0.00    -0.297 N 
ATOM      7  C   UNL A   1      26.705   5.129  37.500  1.00  0.00     0.192 C 
ATOM      8  N   UNL A   1      27.434   6.078  38.274  1.00  0.00    -0.370 N 
ATOM      9  N   UNL A   1      26.897   5.129  36.228  1.00  0.00    -0.269 NA
ATOM     10  H   UNL A   1      25.747   4.670  41.355  1.00  0.00     0.191 HD
ATOM     11  H   UNL A   1      25.323   3.564  37.374  1.00  0.00     0.173 HD
ATOM     12  H   UNL A   1      27.365   6.180  39.289  1.00  0.00     0.159 HD
ATOM     13  H   UNL A   1      28.080   6.722  37.796  1.00  0.00     0.159 HD
ATOM     14  H   UNL A   1      26.409   4.475  35.599  1.00  0.00     0.191 HD
ENDROOT
TORSDOF 0
ENDMDL
MODEL 4
REMARK VINA RESULT:    -4.874     72.550     73.484
REMARK INTER + INTRA:          -4.874
REMARK INTER:                  -4.874
REMARK INTRA:                   0.000
REMARK UNBOUND:                 0.000
REMARK SMILES [H]/N=C(/N)N/C(=N/[H])N(C)C
REMARK SMILES IDX 10 1 9 2 11 3 6 4 7 5 5 6 3 7 4 8 2 9 8 10 1 14
REMARK H PARENT 5 11 4 12 4 13
REMARK Flexibility Score: inf
ROOT
ATOM      1  C   UNL A   1      15.882  30.044  27.049  1.00  0.00     0.146 C 
ATOM      2  N   UNL A   1      14.722  29.284  27.495  1.00  0.00    -0.349 N 
ATOM      3  C   UNL A   1      13.750  28.847  26.503  1.00  0.00     0.146 C 
ATOM      4  C   UNL A   1      14.537  28.968  28.897  1.00  0.00     0.197 C 
ATOM      5  N   UNL A   1      15.400  29.361  29.767  1.00  0.00    -0.269 NA
ATOM      6  N   UNL A   1      13.384  28.216  29.324  1.00  0.00    -0.297 N 
ATOM      7  C   UNL A   1      13.030  27.805  30.661  1.00  0.00     0.192 C 
ATOM      8  N   UNL A   1      13.817  28.095  31.813  1.00  0.00    -0.370 N 
ATOM      9  N   UNL A   1      11.945  27.137  30.837  1.00  0.00    -0.269 NA
ATOM     10  H   UNL A   1      16.246  29.901  29.544  1.00  0.00     0.191 HD
ATOM     11  H   UNL A   1      12.718  27.927  28.596  1.00  0.00     0.173 HD
ATOM     12  H   UNL A   1      14.698  28.612  31.804  1.00  0.00     0.159 HD
ATOM     13  H   UNL A   1      13.494  27.766  32.735  1.00  0.00     0.159 HD
ATOM     14  H   UNL A   1      11.322  26.887  30.055  1.00  0.00     0.191 HD
ENDROOT
TORSDOF 0
ENDMDL
MODEL 5
REMARK VINA RESULT:    -4.749     74.685     75.929
REMARK INTER + INTRA:          -4.749
REMARK INTER:                  -4.749
REMARK INTRA:                   0.000
REMARK UNBOUND:                 0.000
REMARK SMILES [H]/N=C(/N)N/C(=N/[H])N(C)C
REMARK SMILES IDX 10 1 9 2 11 3 6 4 7 5 5 6 3 7 4 8 2 9 8 10 1 14
REMARK H PARENT 5 11 4 12 4 13
REMARK Flexibility Score: inf
ROOT
ATOM      1  C   UNL A   1     -11.799 -64.855  36.481  1.00  0.00     0.146 C 
ATOM      2  N   UNL A   1     -10.920 -63.964  35.735  1.00  0.00    -0.349 N 
ATOM      3  C   UNL A   1      -9.801 -64.540  35.001  1.00  0.00     0.146 C 
ATOM      4  C   UNL A   1     -11.152 -62.534  35.722  1.00  0.00     0.197 C 
ATOM      5  N   UNL A   1     -12.142 -62.034  36.374  1.00  0.00    -0.269 NA
ATOM      6  N   UNL A   1     -10.273 -61.665  34.980  1.00  0.00    -0.297 N 
ATOM      7  C   UNL A   1     -10.342 -60.230  34.845  1.00  0.00     0.192 C 
ATOM      8  N   UNL A   1     -11.347 -59.423  35.453  1.00  0.00    -0.370 N 
ATOM      9  N   UNL A   1      -9.451 -59.632  34.135  1.00  0.00    -0.269 NA
ATOM     10  H   UNL A   1     -12.812 -62.585  36.927  1.00  0.00     0.191 HD
ATOM     11  H   UNL A   1      -9.493 -62.106  34.477  1.00  0.00     0.173 HD
ATOM     12  H   UNL A   1     -12.109 -59.779  36.034  1.00  0.00     0.159 HD
ATOM     13  H   UNL A   1     -11.325 -58.404  35.308  1.00  0.00     0.159 HD
ATOM     14  H   UNL A   1      -8.691 -60.143  33.662  1.00  0.00     0.191 HD
ENDROOT
TORSDOF 0
ENDMDL
MODEL 6
REMARK VINA RESULT:    -4.679     37.302     39.153
REMARK INTER + INTRA:          -4.679
REMARK INTER:                  -4.679
REMARK INTRA:                   0.000
REMARK UNBOUND:                 0.000
REMARK SMILES [H]/N=C(/N)N/C(=N/[H])N(C)C
REMARK SMILES IDX 10 1 9 2 11 3 6 4 7 5 5 6 3 7 4 8 2 9 8 10 1 14
REMARK H PARENT 5 11 4 12 4 13
REMARK Flexibility Score: inf
ROOT
ATOM      1  C   UNL A   1     -36.990 -22.755  34.675  1.00  0.00     0.146 C 
ATOM      2  N   UNL A   1     -36.977 -23.996  35.438  1.00  0.00    -0.349 N 
ATOM      3  C   UNL A   1     -38.146 -24.864  35.380  1.00  0.00     0.146 C 
ATOM      4  C   UNL A   1     -35.826 -24.362  36.238  1.00  0.00     0.197 C 
ATOM      5  N   UNL A   1     -34.799 -23.589  36.284  1.00  0.00    -0.269 NA
ATOM      6  N   UNL A   1     -35.828 -25.593  36.988  1.00  0.00    -0.297 N 
ATOM      7  C   UNL A   1     -34.786 -26.127  37.832  1.00  0.00     0.192 C 
ATOM      8  N   UNL A   1     -33.535 -25.480  38.051  1.00  0.00    -0.370 N 
ATOM      9  N   UNL A   1     -34.984 -27.251  38.425  1.00  0.00    -0.269 NA
ATOM     10  H   UNL A   1     -34.720 -22.695  35.781  1.00  0.00     0.191 HD
ATOM     11  H   UNL A   1     -36.670 -26.179  36.926  1.00  0.00     0.173 HD
ATOM     12  H   UNL A   1     -33.257 -24.589  37.635  1.00  0.00     0.159 HD
ATOM     13  H   UNL A   1     -32.843 -25.927  38.670  1.00  0.00     0.159 HD
ATOM     14  H   UNL A   1     -35.861 -27.781  38.317  1.00  0.00     0.191 HD
ENDROOT
TORSDOF 0
ENDMDL
MODEL 7
REMARK VINA RESULT:    -4.512     71.016     71.954
REMARK INTER + INTRA:          -4.512
REMARK INTER:                  -4.512
REMARK INTRA:                   0.000
REMARK UNBOUND:                 0.000
REMARK SMILES [H]/N=C(/N)N/C(=N/[H])N(C)C
REMARK SMILES IDX 10 1 9 2 11 3 6 4 7 5 5 6 3 7 4 8 2 9 8 10 1 14
REMARK H PARENT 5 11 4 12 4 13
REMARK Flexibility Score: inf
ROOT
ATOM      1  C   UNL A   1      12.650  27.461  25.059  1.00  0.00     0.146 C 
ATOM      2  N   UNL A   1      13.439  27.602  26.276  1.00  0.00    -0.349 N 
ATOM      3  C   UNL A   1      14.889  27.688  26.162  1.00  0.00     0.146 C 
ATOM      4  C   UNL A   1      12.797  27.656  27.574  1.00  0.00     0.197 C 
ATOM      5  N   UNL A   1      11.516  27.578  27.664  1.00  0.00    -0.269 NA
ATOM      6  N   UNL A   1      13.591  27.795  28.769  1.00  0.00    -0.297 N 
ATOM      7  C   UNL A   1      13.139  27.870  30.137  1.00  0.00     0.192 C 
ATOM      8  N   UNL A   1      11.769  27.821  30.523  1.00  0.00    -0.370 N 
ATOM      9  N   UNL A   1      14.015  27.989  31.072  1.00  0.00    -0.269 NA
ATOM     10  H   UNL A   1      10.881  27.477  26.862  1.00  0.00     0.191 HD
ATOM     11  H   UNL A   1      14.610  27.850  28.650  1.00  0.00     0.173 HD
ATOM     12  H   UNL A   1      10.982  27.733  29.877  1.00  0.00     0.159 HD
ATOM     13  H   UNL A   1      11.529  27.880  31.524  1.00  0.00     0.159 HD
ATOM     14  H   UNL A   1      15.026  28.032  30.876  1.00  0.00     0.191 HD
ENDROOT
TORSDOF 0
ENDMDL
MODEL 8
REMARK VINA RESULT:    -4.511     80.292     81.122
REMARK INTER + INTRA:          -4.511
REMARK INTER:                  -4.511
REMARK INTRA:                   0.000
REMARK UNBOUND:                 0.000
REMARK SMILES [H]/N=C(/N)N/C(=N/[H])N(C)C
REMARK SMILES IDX 10 1 9 2 11 3 6 4 7 5 5 6 3 7 4 8 2 9 8 10 1 14
REMARK H PARENT 5 11 4 12 4 13
REMARK Flexibility Score: inf
ROOT
ATOM      1  C   UNL A   1      22.833   3.186  39.932  1.00  0.00     0.146 C 
ATOM      2  N   UNL A   1      23.959   4.032  40.307  1.00  0.00    -0.349 N 
ATOM      3  C   UNL A   1      24.056   4.493  41.686  1.00  0.00     0.146 C 
ATOM      4  C   UNL A   1      24.962   4.408  39.332  1.00  0.00     0.197 C 
ATOM      5  N   UNL A   1      24.867   3.997  38.117  1.00  0.00    -0.269 NA
ATOM      6  N   UNL A   1      26.069   5.245  39.719  1.00  0.00    -0.297 N 
ATOM      7  C   UNL A   1      27.159   5.720  38.900  1.00  0.00     0.192 C 
ATOM      8  N   UNL A   1      27.308   5.405  37.519  1.00  0.00    -0.370 N 
ATOM      9  N   UNL A   1      28.056   6.470  39.437  1.00  0.00    -0.269 NA
ATOM     10  H   UNL A   1      24.109   3.400  37.762  1.00  0.00     0.191 HD
ATOM     11  H   UNL A   1      26.104   5.554  40.699  1.00  0.00     0.173 HD
ATOM     12  H   UNL A   1      26.667   4.817  36.981  1.00  0.00     0.159 HD
ATOM     13  H   UNL A   1      28.115   5.784  37.003  1.00  0.00     0.159 HD
ATOM     14  H   UNL A   1      28.021   6.742  40.431  1.00  0.00     0.191 HD
ENDROOT
TORSDOF 0
ENDMDL
MODEL 9
REMARK VINA RESULT:    -4.464      2.537      2.868
REMARK INTER + INTRA:          -4.464
REMARK INTER:                  -4.464
REMARK INTRA:                   0.000
REMARK UNBOUND:                 0.000
REMARK SMILES [H]/N=C(/N)N/C(=N/[H])N(C)C
REMARK SMILES IDX 10 1 9 2 11 3 6 4 7 5 5 6 3 7 4 8 2 9 8 10 1 14
REMARK H PARENT 5 11 4 12 4 13
REMARK Flexibility Score: inf
ROOT
ATOM      1  C   UNL A   1     -46.818  -3.944  10.658  1.00  0.00     0.146 C 
ATOM      2  N   UNL A   1     -46.092  -3.151   9.675  1.00  0.00    -0.349 N 
ATOM      3  C   UNL A   1     -44.682  -2.868   9.909  1.00  0.00     0.146 C 
ATOM      4  C   UNL A   1     -46.755  -2.654   8.486  1.00  0.00     0.197 C 
ATOM      5  N   UNL A   1     -48.001  -2.908   8.289  1.00  0.00    -0.269 NA
ATOM      6  N   UNL A   1     -46.024  -1.871   7.523  1.00  0.00    -0.297 N 
ATOM      7  C   UNL A   1     -46.504  -1.296   6.290  1.00  0.00     0.192 C 
ATOM      8  N   UNL A   1     -47.842  -1.433   5.819  1.00  0.00    -0.370 N 
ATOM      9  N   UNL A   1     -45.687  -0.619   5.562  1.00  0.00    -0.269 NA
ATOM     10  H   UNL A   1     -48.592  -3.457   8.927  1.00  0.00     0.191 HD
ATOM     11  H   UNL A   1     -45.032  -1.689   7.723  1.00  0.00     0.173 HD
ATOM     12  H   UNL A   1     -48.581  -1.949   6.302  1.00  0.00     0.159 HD
ATOM     13  H   UNL A   1     -48.106  -0.991   4.927  1.00  0.00     0.159 HD
ATOM     14  H   UNL A   1     -44.703  -0.474   5.832  1.00  0.00     0.191 HD
ENDROOT
TORSDOF 0
ENDMDL
